27

C         -0.05420       -1.09670       -0.05470
C          1.36890       -0.72770       -0.54640
C          1.86310        0.59860        0.03040
C          0.98760        1.64640       -0.08280
C         -0.48550        1.35890       -0.49630
C         -0.87140        0.15240        0.32580
H          1.31470        2.64870        0.09990
H         -1.10630        2.18640       -0.22290
C         -2.36810       -0.19110        0.20930
C          3.27500        0.76660        0.62190
H         -0.58380        1.18880       -1.54810
H         -0.03320       -1.68740        0.83720
H         -0.63530        0.42480        1.33330
H         -0.49410       -1.65500       -0.85440
H          3.95740        1.03930       -0.15570
C         -2.78630       -1.46760        0.38890
H         -3.82620       -1.70620        0.30800
H         -2.07670       -2.23680        0.61170
C         -3.38940        0.91600       -0.11130
H         -3.50850        0.99510       -1.17170
H         -4.33060        0.67340        0.33620
H         -3.03880        1.84860        0.27880
H          3.26000        1.53310        1.36840
H          3.58850       -0.15590        1.06420
O          2.22570       -1.82810       -0.23040
H          2.24500       -1.95570        0.72080
H          1.35600       -0.56370       -1.60370
